inverter_control_file/model_base.glm
object regulator_configuration {
  name "rcon_Reg";
  connect_type WYE_WYE;
	Control MANUAL; // LINE_DROP_COMP;
  // use these for OUTPUT_VOLTAGE mode
  // band_center 2440.000000;
  // band_width 40.000000;
  // use these for LINE_DROP_COMP mode
  // band_center 122.000000;
  // band_width 2.000000;
  // transducer ratios only apply to LINE_DROP_COMP mode
  current_transducer_ratio 3500.000000;
  power_transducer_ratio 20.000000;
  dwell_time 15.000000;
  raise_taps 16;
  lower_taps 16;
  regulation 0.100000;
  Type B;
  compensator_r_setting_A 3.000000;
  compensator_x_setting_A 9.000000;
  // comment out the manual tap setting if using automatic control
  tap_pos_A 0;
  compensator_r_setting_B 3.000000;
  compensator_x_setting_B 9.000000;
  // comment out the manual tap setting if using automatic control
  tap_pos_B 0;
  compensator_r_setting_C 3.000000;
  compensator_x_setting_C 9.000000;
  // comment out the manual tap setting if using automatic control
  tap_pos_C 0;
}
object regulator {
  name "reg_Reg";
  from "n650";
  to "rg60";
  phases ABC;
  configuration "rcon_Reg";
  continuous_rating_A 4583.33;
  continuous_rating_B 4583.33;
  continuous_rating_C 4583.33;
  emergency_rating_A 6250.00;
  emergency_rating_B 6250.00;
  emergency_rating_C 6250.00;
}
object line_configuration {
  name "lcon_1p_ug_code4_A";
  z11 0.405129+0.410707j;
  c11 3.6536;
}
object triplex_line_configuration {
  name "tcon_2p_code10_12";
  z11 0.139473+0.328565j;
  z12 0.0467855+0.117314j;
  z21 0.0467855+0.117314j;
  z22 0.140661+0.324634j;
}
object line_configuration {
  name "lcon_2p_oh_code0_BC";
  z22 0.139473+0.328565j;
  c22 4.1355;
  z23 0.0467855+0.117314j;
  c23 -0.8528;
  z32 0.0467855+0.117314j;
  c32 -0.8528;
  z33 0.140661+0.324634j;
  c33 4.1800;
}
object line_configuration {
  name "lcon_3p_code7_ABC";
  z11 0.139473+0.328565j;
  c11 4.5891;
  z12 0.0475475+0.152914j;
  c12 -1.4810;
  z13 0.0467855+0.117314j;
  c13 -0.5645;
  z21 0.0475475+0.152914j;
  c21 -1.4810;
  z22 0.142216+0.319483j;
  c22 4.8352;
  z23 0.0481571+0.129110j;
  c23 -0.9414;
  z31 0.0467855+0.117314j;
  c31 -0.5645;
  z32 0.0481571+0.129110j;
  c32 -0.9414;
  z33 0.140661+0.324634j;
  c33 4.3633;
}
object line_configuration {
  name "lcon_3p_oh_code6_ABC";
  z11 0.139473+0.328565j;
  c11 4.5891;
  z12 0.0475475+0.152914j;
  c12 -1.4810;
  z13 0.0467855+0.117314j;
  c13 -0.5645;
  z21 0.0475475+0.152914j;
  c21 -1.4810;
  z22 0.142216+0.319483j;
  c22 4.8352;
  z23 0.0481571+0.129110j;
  c23 -0.9414;
  z31 0.0467855+0.117314j;
  c31 -0.5645;
  z32 0.0481571+0.129110j;
  c32 -0.9414;
  z33 0.140661+0.324634j;
  c33 4.3633;
}
object line_configuration {
  name "lcon_3p_oh_code1_ABC";
  z11 0.139473+0.328565j;
  c11 4.5891;
  z12 0.0475475+0.152914j;
  c12 -1.4810;
  z13 0.0467855+0.117314j;
  c13 -0.5645;
  z21 0.0475475+0.152914j;
  c21 -1.4810;
  z22 0.142216+0.319483j;
  c22 4.8352;
  z23 0.0481571+0.129110j;
  c23 -0.9414;
  z31 0.0467855+0.117314j;
  c31 -0.5645;
  z32 0.0481571+0.129110j;
  c32 -0.9414;
  z33 0.140661+0.324634j;
  c33 4.3633;
}
object line_configuration {
  name "lcon_3p_ug_code5_ABC";
  z11 0.139473+0.328565j;
  c11 4.5891;
  z12 0.0475475+0.152914j;
  c12 -1.4810;
  z13 0.0467855+0.117314j;
  c13 -0.5645;
  z21 0.0475475+0.152914j;
  c21 -1.4810;
  z22 0.142216+0.319483j;
  c22 4.8352;
  z23 0.0481571+0.129110j;
  c23 -0.9414;
  z31 0.0467855+0.117314j;
  c31 -0.5645;
  z32 0.0481571+0.129110j;
  c32 -0.9414;
  z33 0.140661+0.324634j;
  c33 4.3633;
}
object line_configuration {
  name "lcon_1p_oh_code3_C";
  z33 0.405129+0.410707j;
  c33 3.6536;
}
object line_configuration {
  name "lcon_1p_oh_code9_B";
  z22 0.405129+0.410707j;
  c22 3.6536;
}
object line_configuration {
  name "lcon_1p_oh_code8_A";
  z11 0.405129+0.410707j;
  c11 3.6536;
}
object line_configuration {
  name "lcon_2p_oh_code2_AC";
  z11 0.139473+0.328565j;
  c11 4.1355;
  z13 0.0467855+0.117314j;
  c13 -0.8528;
  z31 0.0467855+0.117314j;
  c31 -0.8528;
  z33 0.140661+0.324634j;
  c33 4.1800;
}
object transformer_configuration {
  name "xcon_cimxfmrcode_xfmr_611_c_2";
  power_rating 10000.000;
  primary_voltage 2400.000;
  secondary_voltage 120.000;
  connect_type SINGLE_PHASE_CENTER_TAPPED;
  impedance 2.25000e-05+0.0163200j;
  impedance1 4.50000e-05+0.00816000j;
  impedance2 4.50000e-05+0.00816000j;
}
object transformer_configuration {
  name "xcon_cimxfmrcode_xfmr_684_c_2";
  power_rating 10000.000;
  primary_voltage 2400.000;
  secondary_voltage 120.000;
  connect_type SINGLE_PHASE_CENTER_TAPPED;
  impedance 2.25000e-05+0.0163200j;
  impedance1 4.50000e-05+0.00816000j;
  impedance2 4.50000e-05+0.00816000j;
}
object transformer_configuration {
  name "xcon_cimxfmrcode_xfmr_611_c_1";
  power_rating 10000.000;
  primary_voltage 2400.000;
  secondary_voltage 120.000;
  connect_type SINGLE_PHASE_CENTER_TAPPED;
  impedance 2.25000e-05+0.0163200j;
  impedance1 4.50000e-05+0.00816000j;
  impedance2 4.50000e-05+0.00816000j;
}
object transformer_configuration {
  name "xcon_cimxfmrcode_xfmr_684_c_1";
  power_rating 10000.000;
  primary_voltage 2400.000;
  secondary_voltage 120.000;
  connect_type SINGLE_PHASE_CENTER_TAPPED;
  impedance 2.25000e-05+0.0163200j;
  impedance1 4.50000e-05+0.00816000j;
  impedance2 4.50000e-05+0.00816000j;
}
object transformer_configuration {
  name "xcon_cimxfmrcode_xfmr_611_c_4";
  power_rating 10000.000;
  primary_voltage 2400.000;
  secondary_voltage 120.000;
  connect_type SINGLE_PHASE_CENTER_TAPPED;
  impedance 2.25000e-05+0.0163200j;
  impedance1 4.50000e-05+0.00816000j;
  impedance2 4.50000e-05+0.00816000j;
}
object transformer_configuration {
  name "xcon_cimxfmrcode_xfmr_671_a_5";
  power_rating 10000.000;
  primary_voltage 2400.000;
  secondary_voltage 120.000;
  connect_type SINGLE_PHASE_CENTER_TAPPED;
  impedance 2.25000e-05+0.0163200j;
  impedance1 4.50000e-05+0.00816000j;
  impedance2 4.50000e-05+0.00816000j;
}
object transformer_configuration {
  name "xcon_cimxfmrcode_xfmr_684_c_4";
  power_rating 10000.000;
  primary_voltage 2400.000;
  secondary_voltage 120.000;
  connect_type SINGLE_PHASE_CENTER_TAPPED;
  impedance 2.25000e-05+0.0163200j;
  impedance1 4.50000e-05+0.00816000j;
  impedance2 4.50000e-05+0.00816000j;
}
object transformer_configuration {
  name "xcon_cimxfmrcode_xfmr_611_c_3";
  power_rating 10000.000;
  primary_voltage 2400.000;
  secondary_voltage 120.000;
  connect_type SINGLE_PHASE_CENTER_TAPPED;
  impedance 2.25000e-05+0.0163200j;
  impedance1 4.50000e-05+0.00816000j;
  impedance2 4.50000e-05+0.00816000j;
}
object transformer_configuration {
  name "xcon_cimxfmrcode_xfmr_684_c_3";
  power_rating 10000.000;
  primary_voltage 2400.000;
  secondary_voltage 120.000;
  connect_type SINGLE_PHASE_CENTER_TAPPED;
  impedance 2.25000e-05+0.0163200j;
  impedance1 4.50000e-05+0.00816000j;
  impedance2 4.50000e-05+0.00816000j;
}
object transformer_configuration {
  name "xcon_cimxfmrcode_xfmr_633_b_4";
  power_rating 10000.000;
  primary_voltage 2400.000;
  secondary_voltage 120.000;
  connect_type SINGLE_PHASE_CENTER_TAPPED;
  impedance 2.25000e-05+0.0163200j;
  impedance1 4.50000e-05+0.00816000j;
  impedance2 4.50000e-05+0.00816000j;
}
object transformer_configuration {
  name "xcon_cimxfmrcode_xfmr_671_a_3";
  power_rating 10000.000;
  primary_voltage 2400.000;
  secondary_voltage 120.000;
  connect_type SINGLE_PHASE_CENTER_TAPPED;
  impedance 2.25000e-05+0.0163200j;
  impedance1 4.50000e-05+0.00816000j;
  impedance2 4.50000e-05+0.00816000j;
}
object transformer_configuration {
  name "xcon_cimxfmrcode_xfmr_611_c_5";
  power_rating 10000.000;
  primary_voltage 2400.000;
  secondary_voltage 120.000;
  connect_type SINGLE_PHASE_CENTER_TAPPED;
  impedance 2.25000e-05+0.0163200j;
  impedance1 4.50000e-05+0.00816000j;
  impedance2 4.50000e-05+0.00816000j;
}
object transformer_configuration {
  name "xcon_cimxfmrcode_xfmr_633_b_5";
  power_rating 10000.000;
  primary_voltage 2400.000;
  secondary_voltage 120.000;
  connect_type SINGLE_PHASE_CENTER_TAPPED;
  impedance 2.25000e-05+0.0163200j;
  impedance1 4.50000e-05+0.00816000j;
  impedance2 4.50000e-05+0.00816000j;
}
object transformer_configuration {
  name "xcon_cimxfmrcode_xfmr_671_a_4";
  power_rating 10000.000;
  primary_voltage 2400.000;
  secondary_voltage 120.000;
  connect_type SINGLE_PHASE_CENTER_TAPPED;
  impedance 2.25000e-05+0.0163200j;
  impedance1 4.50000e-05+0.00816000j;
  impedance2 4.50000e-05+0.00816000j;
}
object transformer_configuration {
  name "xcon_cimxfmrcode_xfmr_633_b_2";
  power_rating 10000.000;
  primary_voltage 2400.000;
  secondary_voltage 120.000;
  connect_type SINGLE_PHASE_CENTER_TAPPED;
  impedance 2.25000e-05+0.0163200j;
  impedance1 4.50000e-05+0.00816000j;
  impedance2 4.50000e-05+0.00816000j;
}
object transformer_configuration {
  name "xcon_cimxfmrcode_xfmr_671_a_1";
  power_rating 10000.000;
  primary_voltage 2400.000;
  secondary_voltage 120.000;
  connect_type SINGLE_PHASE_CENTER_TAPPED;
  impedance 2.25000e-05+0.0163200j;
  impedance1 4.50000e-05+0.00816000j;
  impedance2 4.50000e-05+0.00816000j;
}
object transformer_configuration {
  name "xcon_cimxfmrcode_xfmr_633_b_3";
  power_rating 10000.000;
  primary_voltage 2400.000;
  secondary_voltage 120.000;
  connect_type SINGLE_PHASE_CENTER_TAPPED;
  impedance 2.25000e-05+0.0163200j;
  impedance1 4.50000e-05+0.00816000j;
  impedance2 4.50000e-05+0.00816000j;
}
object transformer_configuration {
  name "xcon_cimxfmrcode_xfmr_671_a_2";
  power_rating 10000.000;
  primary_voltage 2400.000;
  secondary_voltage 120.000;
  connect_type SINGLE_PHASE_CENTER_TAPPED;
  impedance 2.25000e-05+0.0163200j;
  impedance1 4.50000e-05+0.00816000j;
  impedance2 4.50000e-05+0.00816000j;
}
object transformer_configuration {
  name "xcon_cimxfmrcode_xfmr_633_b_1";
  power_rating 10000.000;
  primary_voltage 2400.000;
  secondary_voltage 120.000;
  connect_type SINGLE_PHASE_CENTER_TAPPED;
  impedance 2.25000e-05+0.0163200j;
  impedance1 4.50000e-05+0.00816000j;
  impedance2 4.50000e-05+0.00816000j;
}
object transformer_configuration {
  name "xcon_cimxfmrcode_xfmr_684_c_5";
  power_rating 10000.000;
  primary_voltage 2400.000;
  secondary_voltage 120.000;
  connect_type SINGLE_PHASE_CENTER_TAPPED;
  impedance 2.25000e-05+0.0163200j;
  impedance1 4.50000e-05+0.00816000j;
  impedance2 4.50000e-05+0.00816000j;
}
object transformer_configuration {
  name "xcon_cimxfmrcode_xfmr_645_b_5";
  power_rating 10000.000;
  primary_voltage 2400.000;
  secondary_voltage 120.000;
  connect_type SINGLE_PHASE_CENTER_TAPPED;
  impedance 2.25000e-05+0.0163200j;
  impedance1 4.50000e-05+0.00816000j;
  impedance2 4.50000e-05+0.00816000j;
}
object transformer_configuration {
  name "xcon_cimxfmrcode_xfmr_645_b_4";
  power_rating 10000.000;
  primary_voltage 2400.000;
  secondary_voltage 120.000;
  connect_type SINGLE_PHASE_CENTER_TAPPED;
  impedance 2.25000e-05+0.0163200j;
  impedance1 4.50000e-05+0.00816000j;
  impedance2 4.50000e-05+0.00816000j;
}
object transformer_configuration {
  name "xcon_cimxfmrcode_xfmr_645_b_3";
  power_rating 10000.000;
  primary_voltage 2400.000;
  secondary_voltage 120.000;
  connect_type SINGLE_PHASE_CENTER_TAPPED;
  impedance 2.25000e-05+0.0163200j;
  impedance1 4.50000e-05+0.00816000j;
  impedance2 4.50000e-05+0.00816000j;
}
object transformer_configuration {
  name "xcon_cimxfmrcode_xfmr_645_b_2";
  power_rating 10000.000;
  primary_voltage 2400.000;
  secondary_voltage 120.000;
  connect_type SINGLE_PHASE_CENTER_TAPPED;
  impedance 2.25000e-05+0.0163200j;
  impedance1 4.50000e-05+0.00816000j;
  impedance2 4.50000e-05+0.00816000j;
}
object transformer_configuration {
  name "xcon_cimxfmrcode_xfmr_645_b_1";
  power_rating 10000.000;
  primary_voltage 2400.000;
  secondary_voltage 120.000;
  connect_type SINGLE_PHASE_CENTER_TAPPED;
  impedance 2.25000e-05+0.0163200j;
  impedance1 4.50000e-05+0.00816000j;
  impedance2 4.50000e-05+0.00816000j;
}
object transformer_configuration {
  name "xcon_cimxfmrcode_xfmr_692_b_5";
  power_rating 10000.000;
  primary_voltage 2400.000;
  secondary_voltage 120.000;
  connect_type SINGLE_PHASE_CENTER_TAPPED;
  impedance 2.25000e-05+0.0163200j;
  impedance1 4.50000e-05+0.00816000j;
  impedance2 4.50000e-05+0.00816000j;
}
object transformer_configuration {
  name "xcon_cimxfmrcode_xfmr_692_b_2";
  power_rating 10000.000;
  primary_voltage 2400.000;
  secondary_voltage 120.000;
  connect_type SINGLE_PHASE_CENTER_TAPPED;
  impedance 2.25000e-05+0.0163200j;
  impedance1 4.50000e-05+0.00816000j;
  impedance2 4.50000e-05+0.00816000j;
}
object transformer_configuration {
  name "xcon_cimxfmrcode_xfmr_692_b_1";
  power_rating 10000.000;
  primary_voltage 2400.000;
  secondary_voltage 120.000;
  connect_type SINGLE_PHASE_CENTER_TAPPED;
  impedance 2.25000e-05+0.0163200j;
  impedance1 4.50000e-05+0.00816000j;
  impedance2 4.50000e-05+0.00816000j;
}
object transformer_configuration {
  name "xcon_cimxfmrcode_xfmr_692_b_4";
  power_rating 10000.000;
  primary_voltage 2400.000;
  secondary_voltage 120.000;
  connect_type SINGLE_PHASE_CENTER_TAPPED;
  impedance 2.25000e-05+0.0163200j;
  impedance1 4.50000e-05+0.00816000j;
  impedance2 4.50000e-05+0.00816000j;
}
object transformer_configuration {
  name "xcon_cimxfmrcode_xfmr_692_b_3";
  power_rating 10000.000;
  primary_voltage 2400.000;
  secondary_voltage 120.000;
  connect_type SINGLE_PHASE_CENTER_TAPPED;
  impedance 2.25000e-05+0.0163200j;
  impedance1 4.50000e-05+0.00816000j;
  impedance2 4.50000e-05+0.00816000j;
}
object transformer_configuration {
  name "xcon_cimxfmrcode_xfmr_652_a_1";
  power_rating 10000.000;
  primary_voltage 2400.000;
  secondary_voltage 120.000;
  connect_type SINGLE_PHASE_CENTER_TAPPED;
  impedance 2.25000e-05+0.0163200j;
  impedance1 4.50000e-05+0.00816000j;
  impedance2 4.50000e-05+0.00816000j;
}
object transformer_configuration {
  name "xcon_cimxfmrcode_xfmr_652_a_4";
  power_rating 10000.000;
  primary_voltage 2400.000;
  secondary_voltage 120.000;
  connect_type SINGLE_PHASE_CENTER_TAPPED;
  impedance 2.25000e-05+0.0163200j;
  impedance1 4.50000e-05+0.00816000j;
  impedance2 4.50000e-05+0.00816000j;
}
object transformer_configuration {
  name "xcon_cimxfmrcode_xfmr_652_a_5";
  power_rating 10000.000;
  primary_voltage 2400.000;
  secondary_voltage 120.000;
  connect_type SINGLE_PHASE_CENTER_TAPPED;
  impedance 2.25000e-05+0.0163200j;
  impedance1 4.50000e-05+0.00816000j;
  impedance2 4.50000e-05+0.00816000j;
}
object transformer_configuration {
  name "xcon_cimxfmrcode_xfmr_652_a_2";
  power_rating 10000.000;
  primary_voltage 2400.000;
  secondary_voltage 120.000;
  connect_type SINGLE_PHASE_CENTER_TAPPED;
  impedance 2.25000e-05+0.0163200j;
  impedance1 4.50000e-05+0.00816000j;
  impedance2 4.50000e-05+0.00816000j;
}
object transformer_configuration {
  name "xcon_cimxfmrcode_xfmr_652_a_3";
  power_rating 10000.000;
  primary_voltage 2400.000;
  secondary_voltage 120.000;
  connect_type SINGLE_PHASE_CENTER_TAPPED;
  impedance 2.25000e-05+0.0163200j;
  impedance1 4.50000e-05+0.00816000j;
  impedance2 4.50000e-05+0.00816000j;
}
object transformer_configuration {
  name "xcon_fdrxfmr";
  power_rating 10000.000;
  primary_voltage 4160.000;
  secondary_voltage 480.000;
  connect_type WYE_WYE;
  resistance 0.011000;
  reactance 0.020000;
  shunt_reactance 90.909091;
  shunt_resistance 166.666667;
}
object transformer_configuration {
  name "xcon_cimxfmrcode_xfmr_671_b_4";
  power_rating 10000.000;
  primary_voltage 2400.000;
  secondary_voltage 120.000;
  connect_type SINGLE_PHASE_CENTER_TAPPED;
  impedance 2.25000e-05+0.0163200j;
  impedance1 4.50000e-05+0.00816000j;
  impedance2 4.50000e-05+0.00816000j;
}
object transformer_configuration {
  name "xcon_cimxfmrcode_xfmr_671_b_5";
  power_rating 10000.000;
  primary_voltage 2400.000;
  secondary_voltage 120.000;
  connect_type SINGLE_PHASE_CENTER_TAPPED;
  impedance 2.25000e-05+0.0163200j;
  impedance1 4.50000e-05+0.00816000j;
  impedance2 4.50000e-05+0.00816000j;
}
object transformer_configuration {
  name "xcon_cimxfmrcode_xfmr_633_a_5";
  power_rating 10000.000;
  primary_voltage 2400.000;
  secondary_voltage 120.000;
  connect_type SINGLE_PHASE_CENTER_TAPPED;
  impedance 2.25000e-05+0.0163200j;
  impedance1 4.50000e-05+0.00816000j;
  impedance2 4.50000e-05+0.00816000j;
}
object transformer_configuration {
  name "xcon_cimxfmrcode_xfmr_671_b_2";
  power_rating 10000.000;
  primary_voltage 2400.000;
  secondary_voltage 120.000;
  connect_type SINGLE_PHASE_CENTER_TAPPED;
  impedance 2.25000e-05+0.0163200j;
  impedance1 4.50000e-05+0.00816000j;
  impedance2 4.50000e-05+0.00816000j;
}
object transformer_configuration {
  name "xcon_cimxfmrcode_xfmr_671_b_3";
  power_rating 10000.000;
  primary_voltage 2400.000;
  secondary_voltage 120.000;
  connect_type SINGLE_PHASE_CENTER_TAPPED;
  impedance 2.25000e-05+0.0163200j;
  impedance1 4.50000e-05+0.00816000j;
  impedance2 4.50000e-05+0.00816000j;
}
object transformer_configuration {
  name "xcon_cimxfmrcode_xfmr_633_a_3";
  power_rating 10000.000;
  primary_voltage 2400.000;
  secondary_voltage 120.000;
  connect_type SINGLE_PHASE_CENTER_TAPPED;
  impedance 2.25000e-05+0.0163200j;
  impedance1 4.50000e-05+0.00816000j;
  impedance2 4.50000e-05+0.00816000j;
}
object transformer_configuration {
  name "xcon_cimxfmrcode_xfmr_632_c_1";
  power_rating 10000.000;
  primary_voltage 2400.000;
  secondary_voltage 120.000;
  connect_type SINGLE_PHASE_CENTER_TAPPED;
  impedance 2.25000e-05+0.0163200j;
  impedance1 4.50000e-05+0.00816000j;
  impedance2 4.50000e-05+0.00816000j;
}
object transformer_configuration {
  name "xcon_cimxfmrcode_xfmr_633_a_4";
  power_rating 10000.000;
  primary_voltage 2400.000;
  secondary_voltage 120.000;
  connect_type SINGLE_PHASE_CENTER_TAPPED;
  impedance 2.25000e-05+0.0163200j;
  impedance1 4.50000e-05+0.00816000j;
  impedance2 4.50000e-05+0.00816000j;
}
object transformer_configuration {
  name "xcon_cimxfmrcode_xfmr_671_b_1";
  power_rating 10000.000;
  primary_voltage 2400.000;
  secondary_voltage 120.000;
  connect_type SINGLE_PHASE_CENTER_TAPPED;
  impedance 2.25000e-05+0.0163200j;
  impedance1 4.50000e-05+0.00816000j;
  impedance2 4.50000e-05+0.00816000j;
}
object transformer_configuration {
  name "xcon_cimxfmrcode_xfmr_632_c_2";
  power_rating 10000.000;
  primary_voltage 2400.000;
  secondary_voltage 120.000;
  connect_type SINGLE_PHASE_CENTER_TAPPED;
  impedance 2.25000e-05+0.0163200j;
  impedance1 4.50000e-05+0.00816000j;
  impedance2 4.50000e-05+0.00816000j;
}
object transformer_configuration {
  name "xcon_cimxfmrcode_xfmr_633_a_1";
  power_rating 10000.000;
  primary_voltage 2400.000;
  secondary_voltage 120.000;
  connect_type SINGLE_PHASE_CENTER_TAPPED;
  impedance 2.25000e-05+0.0163200j;
  impedance1 4.50000e-05+0.00816000j;
  impedance2 4.50000e-05+0.00816000j;
}
object transformer_configuration {
  name "xcon_cimxfmrcode_xfmr_632_c_3";
  power_rating 10000.000;
  primary_voltage 2400.000;
  secondary_voltage 120.000;
  connect_type SINGLE_PHASE_CENTER_TAPPED;
  impedance 2.25000e-05+0.0163200j;
  impedance1 4.50000e-05+0.00816000j;
  impedance2 4.50000e-05+0.00816000j;
}
object transformer_configuration {
  name "xcon_cimxfmrcode_xfmr_633_a_2";
  power_rating 10000.000;
  primary_voltage 2400.000;
  secondary_voltage 120.000;
  connect_type SINGLE_PHASE_CENTER_TAPPED;
  impedance 2.25000e-05+0.0163200j;
  impedance1 4.50000e-05+0.00816000j;
  impedance2 4.50000e-05+0.00816000j;
}
object transformer_configuration {
  name "xcon_cimxfmrcode_xfmr_632_c_4";
  power_rating 10000.000;
  primary_voltage 2400.000;
  secondary_voltage 120.000;
  connect_type SINGLE_PHASE_CENTER_TAPPED;
  impedance 2.25000e-05+0.0163200j;
  impedance1 4.50000e-05+0.00816000j;
  impedance2 4.50000e-05+0.00816000j;
}
object transformer_configuration {
  name "xcon_cimxfmrcode_xfmr_632_c_5";
  power_rating 10000.000;
  primary_voltage 2400.000;
  secondary_voltage 120.000;
  connect_type SINGLE_PHASE_CENTER_TAPPED;
  impedance 2.25000e-05+0.0163200j;
  impedance1 4.50000e-05+0.00816000j;
  impedance2 4.50000e-05+0.00816000j;
}
object transformer_configuration {
  name "xcon_cimxfmrcode_xfmr_680_a_3";
  power_rating 10000.000;
  primary_voltage 2400.000;
  secondary_voltage 120.000;
  connect_type SINGLE_PHASE_CENTER_TAPPED;
  impedance 2.25000e-05+0.0163200j;
  impedance1 4.50000e-05+0.00816000j;
  impedance2 4.50000e-05+0.00816000j;
}
object transformer_configuration {
  name "xcon_cimxfmrcode_xfmr_680_a_4";
  power_rating 10000.000;
  primary_voltage 2400.000;
  secondary_voltage 120.000;
  connect_type SINGLE_PHASE_CENTER_TAPPED;
  impedance 2.25000e-05+0.0163200j;
  impedance1 4.50000e-05+0.00816000j;
  impedance2 4.50000e-05+0.00816000j;
}
object transformer_configuration {
  name "xcon_cimxfmrcode_xfmr_680_a_5";
  power_rating 10000.000;
  primary_voltage 2400.000;
  secondary_voltage 120.000;
  connect_type SINGLE_PHASE_CENTER_TAPPED;
  impedance 2.25000e-05+0.0163200j;
  impedance1 4.50000e-05+0.00816000j;
  impedance2 4.50000e-05+0.00816000j;
}
object transformer_configuration {
  name "xcon_cimxfmrcode_xfmr_645_c_5";
  power_rating 10000.000;
  primary_voltage 2400.000;
  secondary_voltage 120.000;
  connect_type SINGLE_PHASE_CENTER_TAPPED;
  impedance 2.25000e-05+0.0163200j;
  impedance1 4.50000e-05+0.00816000j;
  impedance2 4.50000e-05+0.00816000j;
}
object transformer_configuration {
  name "xcon_cimxfmrcode_xfmr_680_a_1";
  power_rating 10000.000;
  primary_voltage 2400.000;
  secondary_voltage 120.000;
  connect_type SINGLE_PHASE_CENTER_TAPPED;
  impedance 2.25000e-05+0.0163200j;
  impedance1 4.50000e-05+0.00816000j;
  impedance2 4.50000e-05+0.00816000j;
}
object transformer_configuration {
  name "xcon_cimxfmrcode_xfmr_645_c_4";
  power_rating 10000.000;
  primary_voltage 2400.000;
  secondary_voltage 120.000;
  connect_type SINGLE_PHASE_CENTER_TAPPED;
  impedance 2.25000e-05+0.0163200j;
  impedance1 4.50000e-05+0.00816000j;
  impedance2 4.50000e-05+0.00816000j;
}
object transformer_configuration {
  name "xcon_cimxfmrcode_xfmr_680_a_2";
  power_rating 10000.000;
  primary_voltage 2400.000;
  secondary_voltage 120.000;
  connect_type SINGLE_PHASE_CENTER_TAPPED;
  impedance 2.25000e-05+0.0163200j;
  impedance1 4.50000e-05+0.00816000j;
  impedance2 4.50000e-05+0.00816000j;
}
object transformer_configuration {
  name "xcon_cimxfmrcode_xfmr_645_c_3";
  power_rating 10000.000;
  primary_voltage 2400.000;
  secondary_voltage 120.000;
  connect_type SINGLE_PHASE_CENTER_TAPPED;
  impedance 2.25000e-05+0.0163200j;
  impedance1 4.50000e-05+0.00816000j;
  impedance2 4.50000e-05+0.00816000j;
}
object transformer_configuration {
  name "xcon_cimxfmrcode_xfmr_675_c_5";
  power_rating 10000.000;
  primary_voltage 2400.000;
  secondary_voltage 120.000;
  connect_type SINGLE_PHASE_CENTER_TAPPED;
  impedance 2.25000e-05+0.0163200j;
  impedance1 4.50000e-05+0.00816000j;
  impedance2 4.50000e-05+0.00816000j;
}
object transformer_configuration {
  name "xcon_cimxfmrcode_xfmr_645_c_2";
  power_rating 10000.000;
  primary_voltage 2400.000;
  secondary_voltage 120.000;
  connect_type SINGLE_PHASE_CENTER_TAPPED;
  impedance 2.25000e-05+0.0163200j;
  impedance1 4.50000e-05+0.00816000j;
  impedance2 4.50000e-05+0.00816000j;
}
object transformer_configuration {
  name "xcon_cimxfmrcode_xfmr_645_c_1";
  power_rating 10000.000;
  primary_voltage 2400.000;
  secondary_voltage 120.000;
  connect_type SINGLE_PHASE_CENTER_TAPPED;
  impedance 2.25000e-05+0.0163200j;
  impedance1 4.50000e-05+0.00816000j;
  impedance2 4.50000e-05+0.00816000j;
}
object transformer_configuration {
  name "xcon_cimxfmrcode_xfmr_675_c_3";
  power_rating 10000.000;
  primary_voltage 2400.000;
  secondary_voltage 120.000;
  connect_type SINGLE_PHASE_CENTER_TAPPED;
  impedance 2.25000e-05+0.0163200j;
  impedance1 4.50000e-05+0.00816000j;
  impedance2 4.50000e-05+0.00816000j;
}
object transformer_configuration {
  name "xcon_cimxfmrcode_xfmr_675_c_4";
  power_rating 10000.000;
  primary_voltage 2400.000;
  secondary_voltage 120.000;
  connect_type SINGLE_PHASE_CENTER_TAPPED;
  impedance 2.25000e-05+0.0163200j;
  impedance1 4.50000e-05+0.00816000j;
  impedance2 4.50000e-05+0.00816000j;
}
object transformer_configuration {
  name "xcon_cimxfmrcode_xfmr_675_c_1";
  power_rating 10000.000;
  primary_voltage 2400.000;
  secondary_voltage 120.000;
  connect_type SINGLE_PHASE_CENTER_TAPPED;
  impedance 2.25000e-05+0.0163200j;
  impedance1 4.50000e-05+0.00816000j;
  impedance2 4.50000e-05+0.00816000j;
}
object transformer_configuration {
  name "xcon_cimxfmrcode_xfmr_692_c_5";
  power_rating 10000.000;
  primary_voltage 2400.000;
  secondary_voltage 120.000;
  connect_type SINGLE_PHASE_CENTER_TAPPED;
  impedance 2.25000e-05+0.0163200j;
  impedance1 4.50000e-05+0.00816000j;
  impedance2 4.50000e-05+0.00816000j;
}
object transformer_configuration {
  name "xcon_cimxfmrcode_xfmr_675_c_2";
  power_rating 10000.000;
  primary_voltage 2400.000;
  secondary_voltage 120.000;
  connect_type SINGLE_PHASE_CENTER_TAPPED;
  impedance 2.25000e-05+0.0163200j;
  impedance1 4.50000e-05+0.00816000j;
  impedance2 4.50000e-05+0.00816000j;
}
object transformer_configuration {
  name "xcon_cimxfmrcode_xfmr_692_c_4";
  power_rating 10000.000;
  primary_voltage 2400.000;
  secondary_voltage 120.000;
  connect_type SINGLE_PHASE_CENTER_TAPPED;
  impedance 2.25000e-05+0.0163200j;
  impedance1 4.50000e-05+0.00816000j;
  impedance2 4.50000e-05+0.00816000j;
}
object transformer_configuration {
  name "xcon_cimxfmrcode_xfmr_692_c_1";
  power_rating 10000.000;
  primary_voltage 2400.000;
  secondary_voltage 120.000;
  connect_type SINGLE_PHASE_CENTER_TAPPED;
  impedance 2.25000e-05+0.0163200j;
  impedance1 4.50000e-05+0.00816000j;
  impedance2 4.50000e-05+0.00816000j;
}
object transformer_configuration {
  name "xcon_cimxfmrcode_xfmr_692_c_3";
  power_rating 10000.000;
  primary_voltage 2400.000;
  secondary_voltage 120.000;
  connect_type SINGLE_PHASE_CENTER_TAPPED;
  impedance 2.25000e-05+0.0163200j;
  impedance1 4.50000e-05+0.00816000j;
  impedance2 4.50000e-05+0.00816000j;
}
object transformer_configuration {
  name "xcon_cimxfmrcode_xfmr_692_c_2";
  power_rating 10000.000;
  primary_voltage 2400.000;
  secondary_voltage 120.000;
  connect_type SINGLE_PHASE_CENTER_TAPPED;
  impedance 2.25000e-05+0.0163200j;
  impedance1 4.50000e-05+0.00816000j;
  impedance2 4.50000e-05+0.00816000j;
}
object transformer_configuration {
  name "xcon_cimxfmrcode_xfmr_671_c_5";
  power_rating 10000.000;
  primary_voltage 2400.000;
  secondary_voltage 120.000;
  connect_type SINGLE_PHASE_CENTER_TAPPED;
  impedance 2.25000e-05+0.0163200j;
  impedance1 4.50000e-05+0.00816000j;
  impedance2 4.50000e-05+0.00816000j;
}
object transformer_configuration {
  name "xcon_cimxfmrcode_xfmr_684_a_4";
  power_rating 10000.000;
  primary_voltage 2400.000;
  secondary_voltage 120.000;
  connect_type SINGLE_PHASE_CENTER_TAPPED;
  impedance 2.25000e-05+0.0163200j;
  impedance1 4.50000e-05+0.00816000j;
  impedance2 4.50000e-05+0.00816000j;
}
object transformer_configuration {
  name "xcon_cimxfmrcode_xfmr_684_a_3";
  power_rating 10000.000;
  primary_voltage 2400.000;
  secondary_voltage 120.000;
  connect_type SINGLE_PHASE_CENTER_TAPPED;
  impedance 2.25000e-05+0.0163200j;
  impedance1 4.50000e-05+0.00816000j;
  impedance2 4.50000e-05+0.00816000j;
}
object transformer_configuration {
  name "xcon_cimxfmrcode_xfmr_671_c_3";
  power_rating 10000.000;
  primary_voltage 2400.000;
  secondary_voltage 120.000;
  connect_type SINGLE_PHASE_CENTER_TAPPED;
  impedance 2.25000e-05+0.0163200j;
  impedance1 4.50000e-05+0.00816000j;
  impedance2 4.50000e-05+0.00816000j;
}
object transformer_configuration {
  name "xcon_cimxfmrcode_xfmr_671_c_4";
  power_rating 10000.000;
  primary_voltage 2400.000;
  secondary_voltage 120.000;
  connect_type SINGLE_PHASE_CENTER_TAPPED;
  impedance 2.25000e-05+0.0163200j;
  impedance1 4.50000e-05+0.00816000j;
  impedance2 4.50000e-05+0.00816000j;
}
object transformer_configuration {
  name "xcon_cimxfmrcode_xfmr_684_a_5";
  power_rating 10000.000;
  primary_voltage 2400.000;
  secondary_voltage 120.000;
  connect_type SINGLE_PHASE_CENTER_TAPPED;
  impedance 2.25000e-05+0.0163200j;
  impedance1 4.50000e-05+0.00816000j;
  impedance2 4.50000e-05+0.00816000j;
}
object transformer_configuration {
  name "xcon_cimxfmrcode_xfmr_671_c_1";
  power_rating 10000.000;
  primary_voltage 2400.000;
  secondary_voltage 120.000;
  connect_type SINGLE_PHASE_CENTER_TAPPED;
  impedance 2.25000e-05+0.0163200j;
  impedance1 4.50000e-05+0.00816000j;
  impedance2 4.50000e-05+0.00816000j;
}
object transformer_configuration {
  name "xcon_cimxfmrcode_xfmr_671_c_2";
  power_rating 10000.000;
  primary_voltage 2400.000;
  secondary_voltage 120.000;
  connect_type SINGLE_PHASE_CENTER_TAPPED;
  impedance 2.25000e-05+0.0163200j;
  impedance1 4.50000e-05+0.00816000j;
  impedance2 4.50000e-05+0.00816000j;
}
object transformer_configuration {
  name "xcon_cimxfmrcode_xfmr_632_b_1";
  power_rating 10000.000;
  primary_voltage 2400.000;
  secondary_voltage 120.000;
  connect_type SINGLE_PHASE_CENTER_TAPPED;
  impedance 2.25000e-05+0.0163200j;
  impedance1 4.50000e-05+0.00816000j;
  impedance2 4.50000e-05+0.00816000j;
}
object transformer_configuration {
  name "xcon_cimxfmrcode_xfmr_684_a_2";
  power_rating 10000.000;
  primary_voltage 2400.000;
  secondary_voltage 120.000;
  connect_type SINGLE_PHASE_CENTER_TAPPED;
  impedance 2.25000e-05+0.0163200j;
  impedance1 4.50000e-05+0.00816000j;
  impedance2 4.50000e-05+0.00816000j;
}
object transformer_configuration {
  name "xcon_cimxfmrcode_xfmr_632_b_2";
  power_rating 10000.000;
  primary_voltage 2400.000;
  secondary_voltage 120.000;
  connect_type SINGLE_PHASE_CENTER_TAPPED;
  impedance 2.25000e-05+0.0163200j;
  impedance1 4.50000e-05+0.00816000j;
  impedance2 4.50000e-05+0.00816000j;
}
object transformer_configuration {
  name "xcon_cimxfmrcode_xfmr_684_a_1";
  power_rating 10000.000;
  primary_voltage 2400.000;
  secondary_voltage 120.000;
  connect_type SINGLE_PHASE_CENTER_TAPPED;
  impedance 2.25000e-05+0.0163200j;
  impedance1 4.50000e-05+0.00816000j;
  impedance2 4.50000e-05+0.00816000j;
}
object transformer_configuration {
  name "xcon_cimxfmrcode_xfmr_632_b_3";
  power_rating 10000.000;
  primary_voltage 2400.000;
  secondary_voltage 120.000;
  connect_type SINGLE_PHASE_CENTER_TAPPED;
  impedance 2.25000e-05+0.0163200j;
  impedance1 4.50000e-05+0.00816000j;
  impedance2 4.50000e-05+0.00816000j;
}
object transformer_configuration {
  name "xcon_cimxfmrcode_xfmr_632_b_4";
  power_rating 10000.000;
  primary_voltage 2400.000;
  secondary_voltage 120.000;
  connect_type SINGLE_PHASE_CENTER_TAPPED;
  impedance 2.25000e-05+0.0163200j;
  impedance1 4.50000e-05+0.00816000j;
  impedance2 4.50000e-05+0.00816000j;
}
object transformer_configuration {
  name "xcon_cimxfmrcode_xfmr_632_b_5";
  power_rating 10000.000;
  primary_voltage 2400.000;
  secondary_voltage 120.000;
  connect_type SINGLE_PHASE_CENTER_TAPPED;
  impedance 2.25000e-05+0.0163200j;
  impedance1 4.50000e-05+0.00816000j;
  impedance2 4.50000e-05+0.00816000j;
}
object transformer_configuration {
  name "xcon_cimxfmrcode_xfmr_680_b_2";
  power_rating 10000.000;
  primary_voltage 2400.000;
  secondary_voltage 120.000;
  connect_type SINGLE_PHASE_CENTER_TAPPED;
  impedance 2.25000e-05+0.0163200j;
  impedance1 4.50000e-05+0.00816000j;
  impedance2 4.50000e-05+0.00816000j;
}
object transformer_configuration {
  name "xcon_cimxfmrcode_xfmr_680_b_3";
  power_rating 10000.000;
  primary_voltage 2400.000;
  secondary_voltage 120.000;
  connect_type SINGLE_PHASE_CENTER_TAPPED;
  impedance 2.25000e-05+0.0163200j;
  impedance1 4.50000e-05+0.00816000j;
  impedance2 4.50000e-05+0.00816000j;
}
object transformer_configuration {
  name "xcon_cimxfmrcode_xfmr_680_b_4";
  power_rating 10000.000;
  primary_voltage 2400.000;
  secondary_voltage 120.000;
  connect_type SINGLE_PHASE_CENTER_TAPPED;
  impedance 2.25000e-05+0.0163200j;
  impedance1 4.50000e-05+0.00816000j;
  impedance2 4.50000e-05+0.00816000j;
}
object transformer_configuration {
  name "xcon_cimxfmrcode_xfmr_680_b_5";
  power_rating 10000.000;
  primary_voltage 2400.000;
  secondary_voltage 120.000;
  connect_type SINGLE_PHASE_CENTER_TAPPED;
  impedance 2.25000e-05+0.0163200j;
  impedance1 4.50000e-05+0.00816000j;
  impedance2 4.50000e-05+0.00816000j;
}
object transformer_configuration {
  name "xcon_cimxfmrcode_xfmr_680_b_1";
  power_rating 10000.000;
  primary_voltage 2400.000;
  secondary_voltage 120.000;
  connect_type SINGLE_PHASE_CENTER_TAPPED;
  impedance 2.25000e-05+0.0163200j;
  impedance1 4.50000e-05+0.00816000j;
  impedance2 4.50000e-05+0.00816000j;
}
object transformer_configuration {
  name "xcon_cimxfmrcode_xfmr_675_b_4";
  power_rating 10000.000;
  primary_voltage 2400.000;
  secondary_voltage 120.000;
  connect_type SINGLE_PHASE_CENTER_TAPPED;
  impedance 2.25000e-05+0.0163200j;
  impedance1 4.50000e-05+0.00816000j;
  impedance2 4.50000e-05+0.00816000j;
}
object transformer_configuration {
  name "xcon_cimxfmrcode_xfmr_675_b_5";
  power_rating 10000.000;
  primary_voltage 2400.000;
  secondary_voltage 120.000;
  connect_type SINGLE_PHASE_CENTER_TAPPED;
  impedance 2.25000e-05+0.0163200j;
  impedance1 4.50000e-05+0.00816000j;
  impedance2 4.50000e-05+0.00816000j;
}
object transformer_configuration {
  name "xcon_cimxfmrcode_xfmr_675_b_2";
  power_rating 10000.000;
  primary_voltage 2400.000;
  secondary_voltage 120.000;
  connect_type SINGLE_PHASE_CENTER_TAPPED;
  impedance 2.25000e-05+0.0163200j;
  impedance1 4.50000e-05+0.00816000j;
  impedance2 4.50000e-05+0.00816000j;
}
object transformer_configuration {
  name "xcon_cimxfmrcode_xfmr_675_b_3";
  power_rating 10000.000;
  primary_voltage 2400.000;
  secondary_voltage 120.000;
  connect_type SINGLE_PHASE_CENTER_TAPPED;
  impedance 2.25000e-05+0.0163200j;
  impedance1 4.50000e-05+0.00816000j;
  impedance2 4.50000e-05+0.00816000j;
}
object transformer_configuration {
  name "xcon_cimxfmrcode_xfmr_675_b_1";
  power_rating 10000.000;
  primary_voltage 2400.000;
  secondary_voltage 120.000;
  connect_type SINGLE_PHASE_CENTER_TAPPED;
  impedance 2.25000e-05+0.0163200j;
  impedance1 4.50000e-05+0.00816000j;
  impedance2 4.50000e-05+0.00816000j;
}
object transformer_configuration {
  name "xcon_cimxfmrcode_xfmr_633_c_5";
  power_rating 10000.000;
  primary_voltage 2400.000;
  secondary_voltage 120.000;
  connect_type SINGLE_PHASE_CENTER_TAPPED;
  impedance 2.25000e-05+0.0163200j;
  impedance1 4.50000e-05+0.00816000j;
  impedance2 4.50000e-05+0.00816000j;
}
object transformer_configuration {
  name "xcon_cimxfmrcode_xfmr_692_a_1";
  power_rating 10000.000;
  primary_voltage 2400.000;
  secondary_voltage 120.000;
  connect_type SINGLE_PHASE_CENTER_TAPPED;
  impedance 2.25000e-05+0.0163200j;
  impedance1 4.50000e-05+0.00816000j;
  impedance2 4.50000e-05+0.00816000j;
}
object transformer_configuration {
  name "xcon_subxfmr";
  power_rating 100000.000;
  primary_voltage 115000.000;
  secondary_voltage 4160.000;
  connect_type DELTA_GWYE;
  resistance 0.000010;
  reactance 0.000080;
}
object transformer_configuration {
  name "xcon_cimxfmrcode_xfmr_633_c_3";
  power_rating 10000.000;
  primary_voltage 2400.000;
  secondary_voltage 120.000;
  connect_type SINGLE_PHASE_CENTER_TAPPED;
  impedance 2.25000e-05+0.0163200j;
  impedance1 4.50000e-05+0.00816000j;
  impedance2 4.50000e-05+0.00816000j;
}
object transformer_configuration {
  name "xcon_cimxfmrcode_xfmr_632_a_1";
  power_rating 10000.000;
  primary_voltage 2400.000;
  secondary_voltage 120.000;
  connect_type SINGLE_PHASE_CENTER_TAPPED;
  impedance 2.25000e-05+0.0163200j;
  impedance1 4.50000e-05+0.00816000j;
  impedance2 4.50000e-05+0.00816000j;
}
object transformer_configuration {
  name "xcon_cimxfmrcode_xfmr_633_c_4";
  power_rating 10000.000;
  primary_voltage 2400.000;
  secondary_voltage 120.000;
  connect_type SINGLE_PHASE_CENTER_TAPPED;
  impedance 2.25000e-05+0.0163200j;
  impedance1 4.50000e-05+0.00816000j;
  impedance2 4.50000e-05+0.00816000j;
}
object transformer_configuration {
  name "xcon_cimxfmrcode_xfmr_632_a_2";
  power_rating 10000.000;
  primary_voltage 2400.000;
  secondary_voltage 120.000;
  connect_type SINGLE_PHASE_CENTER_TAPPED;
  impedance 2.25000e-05+0.0163200j;
  impedance1 4.50000e-05+0.00816000j;
  impedance2 4.50000e-05+0.00816000j;
}
object transformer_configuration {
  name "xcon_cimxfmrcode_xfmr_633_c_1";
  power_rating 10000.000;
  primary_voltage 2400.000;
  secondary_voltage 120.000;
  connect_type SINGLE_PHASE_CENTER_TAPPED;
  impedance 2.25000e-05+0.0163200j;
  impedance1 4.50000e-05+0.00816000j;
  impedance2 4.50000e-05+0.00816000j;
}
object transformer_configuration {
  name "xcon_cimxfmrcode_xfmr_632_a_3";
  power_rating 10000.000;
  primary_voltage 2400.000;
  secondary_voltage 120.000;
  connect_type SINGLE_PHASE_CENTER_TAPPED;
  impedance 2.25000e-05+0.0163200j;
  impedance1 4.50000e-05+0.00816000j;
  impedance2 4.50000e-05+0.00816000j;
}
object transformer_configuration {
  name "xcon_cimxfmrcode_xfmr_633_c_2";
  power_rating 10000.000;
  primary_voltage 2400.000;
  secondary_voltage 120.000;
  connect_type SINGLE_PHASE_CENTER_TAPPED;
  impedance 2.25000e-05+0.0163200j;
  impedance1 4.50000e-05+0.00816000j;
  impedance2 4.50000e-05+0.00816000j;
}
object transformer_configuration {
  name "xcon_cimxfmrcode_xfmr_632_a_4";
  power_rating 10000.000;
  primary_voltage 2400.000;
  secondary_voltage 120.000;
  connect_type SINGLE_PHASE_CENTER_TAPPED;
  impedance 2.25000e-05+0.0163200j;
  impedance1 4.50000e-05+0.00816000j;
  impedance2 4.50000e-05+0.00816000j;
}
object transformer_configuration {
  name "xcon_cimxfmrcode_xfmr_680_c_5";
  power_rating 10000.000;
  primary_voltage 2400.000;
  secondary_voltage 120.000;
  connect_type SINGLE_PHASE_CENTER_TAPPED;
  impedance 2.25000e-05+0.0163200j;
  impedance1 4.50000e-05+0.00816000j;
  impedance2 4.50000e-05+0.00816000j;
}
object transformer_configuration {
  name "xcon_cimxfmrcode_xfmr_632_a_5";
  power_rating 10000.000;
  primary_voltage 2400.000;
  secondary_voltage 120.000;
  connect_type SINGLE_PHASE_CENTER_TAPPED;
  impedance 2.25000e-05+0.0163200j;
  impedance1 4.50000e-05+0.00816000j;
  impedance2 4.50000e-05+0.00816000j;
}
object transformer_configuration {
  name "xcon_cimxfmrcode_xfmr_680_c_1";
  power_rating 10000.000;
  primary_voltage 2400.000;
  secondary_voltage 120.000;
  connect_type SINGLE_PHASE_CENTER_TAPPED;
  impedance 2.25000e-05+0.0163200j;
  impedance1 4.50000e-05+0.00816000j;
  impedance2 4.50000e-05+0.00816000j;
}
object transformer_configuration {
  name "xcon_cimxfmrcode_xfmr_680_c_2";
  power_rating 10000.000;
  primary_voltage 2400.000;
  secondary_voltage 120.000;
  connect_type SINGLE_PHASE_CENTER_TAPPED;
  impedance 2.25000e-05+0.0163200j;
  impedance1 4.50000e-05+0.00816000j;
  impedance2 4.50000e-05+0.00816000j;
}
object transformer_configuration {
  name "xcon_cimxfmrcode_xfmr_680_c_3";
  power_rating 10000.000;
  primary_voltage 2400.000;
  secondary_voltage 120.000;
  connect_type SINGLE_PHASE_CENTER_TAPPED;
  impedance 2.25000e-05+0.0163200j;
  impedance1 4.50000e-05+0.00816000j;
  impedance2 4.50000e-05+0.00816000j;
}
object transformer_configuration {
  name "xcon_cimxfmrcode_xfmr_680_c_4";
  power_rating 10000.000;
  primary_voltage 2400.000;
  secondary_voltage 120.000;
  connect_type SINGLE_PHASE_CENTER_TAPPED;
  impedance 2.25000e-05+0.0163200j;
  impedance1 4.50000e-05+0.00816000j;
  impedance2 4.50000e-05+0.00816000j;
}
object transformer_configuration {
  name "xcon_cimxfmrcode_xfmr_675_a_5";
  power_rating 10000.000;
  primary_voltage 2400.000;
  secondary_voltage 120.000;
  connect_type SINGLE_PHASE_CENTER_TAPPED;
  impedance 2.25000e-05+0.0163200j;
  impedance1 4.50000e-05+0.00816000j;
  impedance2 4.50000e-05+0.00816000j;
}
object transformer_configuration {
  name "xcon_cimxfmrcode_xfmr_675_a_3";
  power_rating 10000.000;
  primary_voltage 2400.000;
  secondary_voltage 120.000;
  connect_type SINGLE_PHASE_CENTER_TAPPED;
  impedance 2.25000e-05+0.0163200j;
  impedance1 4.50000e-05+0.00816000j;
  impedance2 4.50000e-05+0.00816000j;
}
object transformer_configuration {
  name "xcon_cimxfmrcode_xfmr_675_a_4";
  power_rating 10000.000;
  primary_voltage 2400.000;
  secondary_voltage 120.000;
  connect_type SINGLE_PHASE_CENTER_TAPPED;
  impedance 2.25000e-05+0.0163200j;
  impedance1 4.50000e-05+0.00816000j;
  impedance2 4.50000e-05+0.00816000j;
}
object transformer_configuration {
  name "xcon_cimxfmrcode_xfmr_675_a_1";
  power_rating 10000.000;
  primary_voltage 2400.000;
  secondary_voltage 120.000;
  connect_type SINGLE_PHASE_CENTER_TAPPED;
  impedance 2.25000e-05+0.0163200j;
  impedance1 4.50000e-05+0.00816000j;
  impedance2 4.50000e-05+0.00816000j;
}
object transformer_configuration {
  name "xcon_cimxfmrcode_xfmr_675_a_2";
  power_rating 10000.000;
  primary_voltage 2400.000;
  secondary_voltage 120.000;
  connect_type SINGLE_PHASE_CENTER_TAPPED;
  impedance 2.25000e-05+0.0163200j;
  impedance1 4.50000e-05+0.00816000j;
  impedance2 4.50000e-05+0.00816000j;
}
object transformer_configuration {
  name "xcon_cimxfmrcode_xfmr_692_a_3";
  power_rating 10000.000;
  primary_voltage 2400.000;
  secondary_voltage 120.000;
  connect_type SINGLE_PHASE_CENTER_TAPPED;
  impedance 2.25000e-05+0.0163200j;
  impedance1 4.50000e-05+0.00816000j;
  impedance2 4.50000e-05+0.00816000j;
}
object transformer_configuration {
  name "xcon_cimxfmrcode_xfmr_692_a_2";
  power_rating 10000.000;
  primary_voltage 2400.000;
  secondary_voltage 120.000;
  connect_type SINGLE_PHASE_CENTER_TAPPED;
  impedance 2.25000e-05+0.0163200j;
  impedance1 4.50000e-05+0.00816000j;
  impedance2 4.50000e-05+0.00816000j;
}
object transformer_configuration {
  name "xcon_cimxfmrcode_xfmr_692_a_5";
  power_rating 10000.000;
  primary_voltage 2400.000;
  secondary_voltage 120.000;
  connect_type SINGLE_PHASE_CENTER_TAPPED;
  impedance 2.25000e-05+0.0163200j;
  impedance1 4.50000e-05+0.00816000j;
  impedance2 4.50000e-05+0.00816000j;
}
object transformer_configuration {
  name "xcon_cimxfmrcode_xfmr_692_a_4";
  power_rating 10000.000;
  primary_voltage 2400.000;
  secondary_voltage 120.000;
  connect_type SINGLE_PHASE_CENTER_TAPPED;
  impedance 2.25000e-05+0.0163200j;
  impedance1 4.50000e-05+0.00816000j;
  impedance2 4.50000e-05+0.00816000j;
}
object capacitor {
  name "cap_cap1";
  parent "n675";
  phases ABCN;
  phases_connected ABCN;
  cap_nominal_voltage 2401.78;
  nominal_voltage 2401.78;
  capacitor_A 200000.00;
  switchA CLOSED;
  capacitor_B 200000.00;
  switchB CLOSED;
  capacitor_C 200000.00;
  switchC CLOSED;
  control MANUAL; // MANUAL;
  // CIM timeScheduled on=8.00 off=19.00;
  pt_phase A;
	control_level BANK;
  dwell_time 15.00;
}
object capacitor {
  name "cap_cap2";
  parent "n611";
  phases CN;
  phases_connected CN;
  cap_nominal_voltage 2400.00;
  nominal_voltage 2400.00;
  capacitor_C 100000.00;
  switchC CLOSED;
  control MANUAL; // VOLT;
  voltage_set_low 2300.00;
  voltage_set_high 2500.00;
	remote_sense "line_ol684611";
  pt_phase C;
	control_level BANK;
  dwell_time 15.00;
}

// ----- inverters 
object inverter {
	name inv_bat_trip_load_680_c_19_battery;
	parent tlx_680_c_h_19_stmtr;
	phases CS;
	inverter_type FOUR_QUADRANT;
	four_quadrant_control_mode VOLT_VAR;
	generator_status ONLINE;
	generator_mode CONSTANT_PQ;
	charge_lockout_time 1;
	discharge_lockout_time 1;
	inverter_efficiency 0.975;
		V_base ${tlx_680_c_h_19};
	rated_power 4500.000;
	P_Out 0.000;
	Q_Out 0.000;
	V1 0.90;
	Q1 0.70;
	V2 0.95;
	Q2 0.0;
	V3 1.05;
	Q3 0.00;
	V4 1.10;
	Q4 -0.8;
	object battery {
		name bat_trip_load_680_c_19_battery;
		nominal_voltage 48;
		battery_capacity 7000.0;
		state_of_charge 1.0000;
		use_internal_battery_model true;
		generator_mode CONSTANT_PQ;
		generator_status ONLINE;
		battery_type LI_ION;
		round_trip_efficiency 0.86;
		rated_power 4500.000;

	};
}
object inverter {
	name inv_bat_trip_load_632_c_4_battery;
	parent tlx_632_c_h_4_stmtr;
	phases CS;
	generator_status ONLINE;
	generator_mode CONSTANT_PQ;
	inverter_type FOUR_QUADRANT;
	four_quadrant_control_mode VOLT_VAR;
	charge_lockout_time 1;
	discharge_lockout_time 1;
	sense_object tlx_632_c_h_4_stmtr;
	inverter_efficiency 0.975;
	V_base ${tlx_632_c_h_4};
	rated_power 4500.000;
	P_Out 0.000;
	Q_Out 0.000;
	V1 0.90;
	Q1 0.70;
	V2 0.95;
	Q2 0.0;
	V3 1.05;
	Q3 0.00;
	V4 1.10;
	Q4 -0.8;
	object battery {
		name bat_trip_load_632_c_4_battery;
		nominal_voltage 48;
		battery_capacity 7000.0;
		state_of_charge 1.0000;
		use_internal_battery_model true;
		generator_mode CONSTANT_PQ;
		generator_status ONLINE;
		battery_type LI_ION;
		round_trip_efficiency 0.86;
		rated_power 4500.000;

	};
}
object inverter {
	name inv_bat_trip_load_671_a_34_battery;
	parent tlx_671_a_h_34_stmtr;
	phases AS;
	generator_status ONLINE;
	generator_mode CONSTANT_PQ;
	inverter_type FOUR_QUADRANT;
	four_quadrant_control_mode VOLT_VAR;
	charge_lockout_time 1;
	discharge_lockout_time 1;
	sense_object tlx_671_a_h_34_stmtr;
	inverter_efficiency 0.975;
		V_base ${tlx_671_a_h_34};
	rated_power 4500.000;
	P_Out 0.000;
	Q_Out 0.000;
	V1 0.90;
	Q1 0.70;
	V2 0.95;
	Q2 0.0;
	V3 1.05;
	Q3 0.00;
	V4 1.10;
	Q4 -0.8;
	object battery {
		name bat_trip_load_671_a_34_battery;
		nominal_voltage 48;
		battery_capacity 7000.0;
		state_of_charge 1.0000;
		use_internal_battery_model true;
		generator_mode CONSTANT_PQ;
		generator_status ONLINE;
		battery_type LI_ION;
		round_trip_efficiency 0.86;
		rated_power 4500.000;

	};
}
object inverter {
	name inv_bat_trip_load_652_a_15_battery;
	parent tlx_652_a_h_15_stmtr;
	phases AS;
	generator_status ONLINE;
	generator_mode CONSTANT_PQ;
	inverter_type FOUR_QUADRANT;
	four_quadrant_control_mode VOLT_VAR;
	charge_lockout_time 1;
	discharge_lockout_time 1;
	sense_object tlx_652_a_h_15_stmtr;
	inverter_efficiency 0.975;
		V_base ${tlx_652_a_h_15};
	rated_power 4500.000;
	P_Out 0.000;
	Q_Out 0.000;
	V1 0.90;
	Q1 0.70;
	V2 0.95;
	Q2 0.0;
	V3 1.05;
	Q3 0.00;
	V4 1.10;
	Q4 -0.8;
	object battery {
		name bat_trip_load_652_a_15_battery;
		nominal_voltage 48;
		battery_capacity 7000.0;
		state_of_charge 1.0000;
		use_internal_battery_model true;
		generator_mode CONSTANT_PQ;
		generator_status ONLINE;
		battery_type LI_ION;
		round_trip_efficiency 0.86;
		rated_power 4500.000;

	};
}
object inverter {
	name inv_bat_trip_load_675_b_27_battery;
	parent tlx_675_b_h_27_stmtr;
	phases BS;
	generator_status ONLINE;
	generator_mode CONSTANT_PQ;
	inverter_type FOUR_QUADRANT;
	four_quadrant_control_mode VOLT_VAR;
	charge_lockout_time 1;
	discharge_lockout_time 1;
	sense_object tlx_675_b_h_27_stmtr;
	inverter_efficiency 0.975;
		V_base ${tlx_675_b_h_27};
	rated_power 4500.000;
	P_Out 0.000;
	Q_Out 0.000;
	V1 0.90;
	Q1 0.70;
	V2 0.95;
	Q2 0.0;
	V3 1.05;
	Q3 0.00;
	V4 1.10;
	Q4 -0.8;
	object battery {
		name bat_trip_load_675_b_27_battery;
		nominal_voltage 48;
		battery_capacity 7000.0;
		state_of_charge 1.0000;
		use_internal_battery_model true;
		generator_mode CONSTANT_PQ;
		generator_status ONLINE;
		battery_type LI_ION;
		round_trip_efficiency 0.86;
		rated_power 4500.000;

	};
}
object inverter {
	name inv_bat_trip_load_692_a_3_battery;
	parent tlx_692_a_h_3_stmtr;
	phases AS;
	generator_status ONLINE;
	generator_mode CONSTANT_PQ;
	inverter_type FOUR_QUADRANT;
	four_quadrant_control_mode VOLT_VAR;
	charge_lockout_time 1;
	discharge_lockout_time 1;
	sense_object tlx_692_a_h_3_stmtr;
	inverter_efficiency 0.975;
		V_base ${tlx_692_a_h_3};
	rated_power 4500.000;
	P_Out 0.000;
	Q_Out 0.000;
	V1 0.90;
	Q1 0.70;
	V2 0.95;
	Q2 0.0;
	V3 1.05;
	Q3 0.00;
	V4 1.10;
	Q4 -0.8;
	object battery {
		name bat_trip_load_692_a_3_battery;
		nominal_voltage 48;
		battery_capacity 7000.0;
		state_of_charge 1.0000;
		use_internal_battery_model true;
		generator_mode CONSTANT_PQ;
		generator_status ONLINE;
		battery_type LI_ION;
		round_trip_efficiency 0.86;
		rated_power 4500.000;

	};
}
object inverter {
	name inv_bat_trip_load_675_c_22_battery;
	parent tlx_675_c_h_22_stmtr;
	phases CS;
	generator_status ONLINE;
	generator_mode CONSTANT_PQ;
	inverter_type FOUR_QUADRANT;
	four_quadrant_control_mode VOLT_VAR;
	charge_lockout_time 1;
	discharge_lockout_time 1;
	sense_object tlx_675_c_h_22_stmtr;
	inverter_efficiency 0.975;
		V_base ${tlx_675_c_h_22};
	rated_power 4500.000;
	P_Out 0.000;
	Q_Out 0.000;
	V1 0.90;
	Q1 0.70;
	V2 0.95;
	Q2 0.0;
	V3 1.05;
	Q3 0.00;
	V4 1.10;
	Q4 -0.8;
	object battery {
		name bat_trip_load_675_c_22_battery;
		nominal_voltage 48;
		battery_capacity 7000.0;
		state_of_charge 1.0000;
		use_internal_battery_model true;
		generator_mode CONSTANT_PQ;
		generator_status ONLINE;
		battery_type LI_ION;
		round_trip_efficiency 0.86;
		rated_power 4500.000;

	};
}
object inverter {
	name inv_bat_trip_load_675_c_39_battery;
	parent tlx_675_c_h_39_stmtr;
	phases CS;
	generator_status ONLINE;
	generator_mode CONSTANT_PQ;
	inverter_type FOUR_QUADRANT;
	four_quadrant_control_mode VOLT_VAR;
	charge_lockout_time 1;
	discharge_lockout_time 1;
	sense_object tlx_675_c_h_39_stmtr;
	inverter_efficiency 0.975;
		V_base ${tlx_675_c_h_39};
	rated_power 4500.000;
	P_Out 0.000;
	Q_Out 0.000;
	V1 0.90;
	Q1 0.70;
	V2 0.95;
	Q2 0.0;
	V3 1.05;
	Q3 0.00;
	V4 1.10;
	Q4 -0.8;
	object battery {
		name bat_trip_load_675_c_39_battery;
		nominal_voltage 48;
		battery_capacity 7000.0;
		state_of_charge 1.0000;
		use_internal_battery_model true;
		generator_mode CONSTANT_PQ;
		generator_status ONLINE;
		battery_type LI_ION;
		round_trip_efficiency 0.86;
		rated_power 4500.000;

	};
}
object inverter {
	name inv_bat_trip_load_632_c_17_battery;
	parent tlx_632_c_h_17_stmtr;
	phases CS;
	generator_status ONLINE;
	generator_mode CONSTANT_PQ;
	inverter_type FOUR_QUADRANT;
	four_quadrant_control_mode VOLT_VAR;
	charge_lockout_time 1;
	discharge_lockout_time 1;
	sense_object tlx_632_c_h_17_stmtr;
	inverter_efficiency 0.975;
		V_base ${tlx_632_c_h_17};
	rated_power 4500.000;
	P_Out 0.000;
	Q_Out 0.000;
	V1 0.90;
	Q1 0.70;
	V2 0.95;
	Q2 0.0;
	V3 1.05;
	Q3 0.00;
	V4 1.10;
	Q4 -0.8;
	object battery {
		name bat_trip_load_632_c_17_battery;
		nominal_voltage 48;
		battery_capacity 7000.0;
		state_of_charge 1.0000;
		use_internal_battery_model true;
		generator_mode CONSTANT_PQ;
		generator_status ONLINE;
		battery_type LI_ION;
		round_trip_efficiency 0.86;
		rated_power 4500.000;

	};
}
object inverter {
	name inv_bat_trip_load_645_c_7_battery;
	parent tlx_645_c_h_7_stmtr;
	phases CS;
	generator_status ONLINE;
	generator_mode CONSTANT_PQ;
	inverter_type FOUR_QUADRANT;
	four_quadrant_control_mode VOLT_VAR;
	charge_lockout_time 1;
	discharge_lockout_time 1;
	sense_object tlx_645_c_h_7_stmtr;
	inverter_efficiency 0.975;
		V_base ${tlx_645_c_h_7};
	rated_power 4500.000;
	P_Out 0.000;
	Q_Out 0.000;
	V1 0.90;
	Q1 0.70;
	V2 0.95;
	Q2 0.0;
	V3 1.05;
	Q3 0.00;
	V4 1.10;
	Q4 -0.8;
	object battery {
		name bat_trip_load_645_c_7_battery;
		nominal_voltage 48;
		battery_capacity 7000.0;
		state_of_charge 1.0000;
		use_internal_battery_model true;
		generator_mode CONSTANT_PQ;
		generator_status ONLINE;
		battery_type LI_ION;
		round_trip_efficiency 0.86;
		rated_power 4500.000;

	};
}
object inverter {
	name inv_bat_trip_load_675_b_10_battery;
	parent tlx_675_b_h_10_stmtr;
	phases BS;
	generator_status ONLINE;
	generator_mode CONSTANT_PQ;
	inverter_type FOUR_QUADRANT;
	four_quadrant_control_mode VOLT_VAR;
	charge_lockout_time 1;
	discharge_lockout_time 1;
	sense_object tlx_675_b_h_10_stmtr;
	inverter_efficiency 0.975;
		V_base ${tlx_675_b_h_10};
	rated_power 4500.000;
	P_Out 0.000;
	Q_Out 0.000;
	V1 0.90;
	Q1 0.70;
	V2 0.95;
	Q2 0.0;
	V3 1.05;
	Q3 0.00;
	V4 1.10;
	Q4 -0.8;
	object battery {
		name bat_trip_load_675_b_10_battery;
		nominal_voltage 48;
		battery_capacity 7000.0;
		state_of_charge 1.0000;
		use_internal_battery_model true;
		generator_mode CONSTANT_PQ;
		generator_status ONLINE;
		battery_type LI_ION;
		round_trip_efficiency 0.86;
		rated_power 4500.000;

	};
}
object inverter {
	name inv_bat_trip_load_632_a_40_battery;
	parent tlx_632_a_h_40_stmtr;
	phases AS;
	generator_status ONLINE;
	generator_mode CONSTANT_PQ;
	inverter_type FOUR_QUADRANT;
	four_quadrant_control_mode VOLT_VAR;
	charge_lockout_time 1;
	discharge_lockout_time 1;
	sense_object tlx_632_a_h_40_stmtr;
	inverter_efficiency 0.975;
		V_base ${tlx_632_a_h_40};
	rated_power 4500.000;
	P_Out 0.000;
	Q_Out 0.000;
	V1 0.90;
	Q1 0.70;
	V2 0.95;
	Q2 0.0;
	V3 1.05;
	Q3 0.00;
	V4 1.10;
	Q4 -0.8;
	object battery {
		name bat_trip_load_632_a_40_battery;
		nominal_voltage 48;
		battery_capacity 7000.0;
		state_of_charge 1.0000;
		use_internal_battery_model true;
		generator_mode CONSTANT_PQ;
		generator_status ONLINE;
		battery_type LI_ION;
		round_trip_efficiency 0.86;
		rated_power 4500.000;

	};
}
object inverter {
	name inv_bat_trip_load_684_c_30_battery;
	parent tlx_684_c_h_30_stmtr;
	phases CS;
	generator_status ONLINE;
	generator_mode CONSTANT_PQ;
	inverter_type FOUR_QUADRANT;
	four_quadrant_control_mode VOLT_VAR;
	charge_lockout_time 1;
	discharge_lockout_time 1;
	sense_object tlx_684_c_h_30_stmtr;
	inverter_efficiency 0.975;
		V_base ${tlx_684_c_h_30};
	rated_power 4500.000;
	P_Out 0.000;
	Q_Out 0.000;
	V1 0.90;
	Q1 0.70;
	V2 0.95;
	Q2 0.0;
	V3 1.05;
	Q3 0.00;
	V4 1.10;
	Q4 -0.8;
	object battery {
		name bat_trip_load_684_c_30_battery;
		nominal_voltage 48;
		battery_capacity 7000.0;
		state_of_charge 1.0000;
		use_internal_battery_model true;
		generator_mode CONSTANT_PQ;
		generator_status ONLINE;
		battery_type LI_ION;
		round_trip_efficiency 0.86;
		rated_power 4500.000;

	};
}
object inverter {
	name inv_bat_trip_load_692_c_19_battery;
	parent tlx_692_c_h_19_stmtr;
	phases CS;
	generator_status ONLINE;
	generator_mode CONSTANT_PQ;
	inverter_type FOUR_QUADRANT;
	four_quadrant_control_mode VOLT_VAR;
	charge_lockout_time 1;
	discharge_lockout_time 1;
	sense_object tlx_692_c_h_19_stmtr;
	inverter_efficiency 0.975;
		V_base ${tlx_692_c_h_19};
	rated_power 4500.000;
	P_Out 0.000;
	Q_Out 0.000;
	V1 0.90;
	Q1 0.70;
	V2 0.95;
	Q2 0.0;
	V3 1.05;
	Q3 0.00;
	V4 1.10;
	Q4 -0.8;
	object battery {
		name bat_trip_load_692_c_19_battery;
		nominal_voltage 48;
		battery_capacity 7000.0;
		state_of_charge 1.0000;
		use_internal_battery_model true;
		generator_mode CONSTANT_PQ;
		generator_status ONLINE;
		battery_type LI_ION;
		round_trip_efficiency 0.86;
		rated_power 4500.000;

	};
}
object inverter {
	name inv_bat_trip_load_675_a_15_battery;
	parent tlx_675_a_h_15_stmtr;
	phases AS;
	generator_status ONLINE;
	generator_mode CONSTANT_PQ;
	inverter_type FOUR_QUADRANT;
	four_quadrant_control_mode VOLT_VAR;
	charge_lockout_time 1;
	discharge_lockout_time 1;
	sense_object tlx_675_a_h_15_stmtr;
	inverter_efficiency 0.975;
		V_base ${tlx_675_a_h_15};
	rated_power 4500.000;
	P_Out 0.000;
	Q_Out 0.000;
	V1 0.90;
	Q1 0.70;
	V2 0.95;
	Q2 0.0;
	V3 1.05;
	Q3 0.00;
	V4 1.10;
	Q4 -0.8;
	object battery {
		name bat_trip_load_675_a_15_battery;
		nominal_voltage 48;
		battery_capacity 7000.0;
		state_of_charge 1.0000;
		use_internal_battery_model true;
		generator_mode CONSTANT_PQ;
		generator_status ONLINE;
		battery_type LI_ION;
		round_trip_efficiency 0.86;
		rated_power 4500.000;

	};
}
object inverter {
	name inv_bat_trip_load_684_a_23_battery;
	parent tlx_684_a_h_23_stmtr;
	phases AS;
	generator_status ONLINE;
	generator_mode CONSTANT_PQ;
	inverter_type FOUR_QUADRANT;
	four_quadrant_control_mode VOLT_VAR;
	charge_lockout_time 1;
	discharge_lockout_time 1;
	sense_object tlx_684_a_h_23_stmtr;
	inverter_efficiency 0.975;
		V_base ${tlx_684_a_h_23};
	rated_power 4500.000;
	P_Out 0.000;
	Q_Out 0.000;
	V1 0.90;
	Q1 0.70;
	V2 0.95;
	Q2 0.0;
	V3 1.05;
	Q3 0.00;
	V4 1.10;
	Q4 -0.8;
	object battery {
		name bat_trip_load_684_a_23_battery;
		nominal_voltage 48;
		battery_capacity 7000.0;
		state_of_charge 1.0000;
		use_internal_battery_model true;
		generator_mode CONSTANT_PQ;
		generator_status ONLINE;
		battery_type LI_ION;
		round_trip_efficiency 0.86;
		rated_power 4500.000;

	};
}
object inverter {
	name inv_bat_trip_load_632_c_14_battery;
	parent tlx_632_c_h_14_stmtr;
	phases CS;
	generator_status ONLINE;
	generator_mode CONSTANT_PQ;
	inverter_type FOUR_QUADRANT;
	four_quadrant_control_mode VOLT_VAR;
	charge_lockout_time 1;
	discharge_lockout_time 1;
	sense_object tlx_632_c_h_14_stmtr;
	inverter_efficiency 0.975;
		V_base ${tlx_632_c_h_14};
	rated_power 4500.000;
	P_Out 0.000;
	Q_Out 0.000;
	V1 0.90;
	Q1 0.70;
	V2 0.95;
	Q2 0.0;
	V3 1.05;
	Q3 0.00;
	V4 1.10;
	Q4 -0.8;
	object battery {
		name bat_trip_load_632_c_14_battery;
		nominal_voltage 48;
		battery_capacity 7000.0;
		state_of_charge 1.0000;
		use_internal_battery_model true;
		generator_mode CONSTANT_PQ;
		generator_status ONLINE;
		battery_type LI_ION;
		round_trip_efficiency 0.86;
		rated_power 4500.000;

	};
}
object inverter {
	name inv_bat_trip_load_632_b_9_battery;
	parent tlx_632_b_h_9_stmtr;
	phases BS;
	generator_status ONLINE;
	generator_mode CONSTANT_PQ;
	inverter_type FOUR_QUADRANT;
	four_quadrant_control_mode VOLT_VAR;
	charge_lockout_time 1;
	discharge_lockout_time 1;
	sense_object tlx_632_b_h_9_stmtr;
	inverter_efficiency 0.975;
		V_base ${tlx_632_b_h_9};
	rated_power 4500.000;
	P_Out 0.000;
	Q_Out 0.000;
	V1 0.90;
	Q1 0.70;
	V2 0.95;
	Q2 0.0;
	V3 1.05;
	Q3 0.00;
	V4 1.10;
	Q4 -0.8;
	object battery {
		name bat_trip_load_632_b_9_battery;
		nominal_voltage 48;
		battery_capacity 7000.0;
		state_of_charge 1.0000;
		use_internal_battery_model true;
		generator_mode CONSTANT_PQ;
		generator_status ONLINE;
		battery_type LI_ION;
		round_trip_efficiency 0.86;
		rated_power 4500.000;

	};
}
object inverter {
	name inv_bat_trip_load_671_a_37_battery;
	parent tlx_671_a_h_37_stmtr;
	phases AS;
	generator_status ONLINE;
	generator_mode CONSTANT_PQ;
	inverter_type FOUR_QUADRANT;
	four_quadrant_control_mode VOLT_VAR;
	charge_lockout_time 1;
	discharge_lockout_time 1;
	sense_object tlx_671_a_h_37_stmtr;
	inverter_efficiency 0.975;
		V_base ${tlx_671_a_h_37};
	rated_power 4500.000;
	P_Out 0.000;
	Q_Out 0.000;
	V1 0.90;
	Q1 0.70;
	V2 0.95;
	Q2 0.0;
	V3 1.05;
	Q3 0.00;
	V4 1.10;
	Q4 -0.8;
	object battery {
		name bat_trip_load_671_a_37_battery;
		nominal_voltage 48;
		battery_capacity 7000.0;
		state_of_charge 1.0000;
		use_internal_battery_model true;
		generator_mode CONSTANT_PQ;
		generator_status ONLINE;
		battery_type LI_ION;
		round_trip_efficiency 0.86;
		rated_power 4500.000;

	};
}
object inverter {
	name inv_bat_trip_load_633_b_9_battery;
	parent tlx_633_b_h_9_stmtr;
	phases BS;
	generator_status ONLINE;
	generator_mode CONSTANT_PQ;
	inverter_type FOUR_QUADRANT;
	four_quadrant_control_mode VOLT_VAR;
	charge_lockout_time 1;
	discharge_lockout_time 1;
	sense_object tlx_633_b_h_9_stmtr;
	inverter_efficiency 0.975;
		V_base ${tlx_633_b_h_9};
	rated_power 4500.000;
	P_Out 0.000;
	Q_Out 0.000;
	V1 0.90;
	Q1 0.70;
	V2 0.95;
	Q2 0.0;
	V3 1.05;
	Q3 0.00;
	V4 1.10;
	Q4 -0.8;
	object battery {
		name bat_trip_load_633_b_9_battery;
		nominal_voltage 48;
		battery_capacity 7000.0;
		state_of_charge 1.0000;
		use_internal_battery_model true;
		generator_mode CONSTANT_PQ;
		generator_status ONLINE;
		battery_type LI_ION;
		round_trip_efficiency 0.86;
		rated_power 4500.000;

	};
}
object inverter {
	name inv_bat_trip_load_675_c_25_battery;
	parent tlx_675_c_h_25_stmtr;
	phases CS;
	generator_status ONLINE;
	generator_mode CONSTANT_PQ;
	inverter_type FOUR_QUADRANT;
	four_quadrant_control_mode VOLT_VAR;
	charge_lockout_time 1;
	discharge_lockout_time 1;
	sense_object tlx_675_c_h_25_stmtr;
	inverter_efficiency 0.975;
		V_base ${tlx_675_c_h_25};
	rated_power 4500.000;
	P_Out 0.000;
	Q_Out 0.000;
	V1 0.90;
	Q1 0.70;
	V2 0.95;
	Q2 0.0;
	V3 1.05;
	Q3 0.00;
	V4 1.10;
	Q4 -0.8;
	object battery {
		name bat_trip_load_675_c_25_battery;
		nominal_voltage 48;
		battery_capacity 7000.0;
		state_of_charge 1.0000;
		use_internal_battery_model true;
		generator_mode CONSTANT_PQ;
		generator_status ONLINE;
		battery_type LI_ION;
		round_trip_efficiency 0.86;
		rated_power 4500.000;

	};
}
object inverter {
...